
  -OEChem-04092120403D

122128  0     1  0  0  0  0  0999 V2000
   70.4680  176.5720    6.8490 Cl  0  0  0  0  0  0  0  0  0  0  0  0
   62.6180  181.6950    2.9550 C   0  0  0  0  0  0  0  0  0  0  0  0
   61.2880  181.5610    3.3050 C   0  0  0  0  0  0  0  0  0  0  0  0
   63.3580  182.7160    3.5390 C   0  0  0  0  0  0  0  0  0  0  0  0
   69.0080  173.5350    4.8760 C   0  0  0  0  0  0  0  0  0  0  0  0
   69.6240  175.1340    3.1850 C   0  0  0  0  0  0  0  0  0  0  0  0
   60.5660  178.5440    1.4540 C   0  0  0  0  0  0  0  0  0  0  0  0
   62.3040  179.0200   -0.1610 C   0  0  0  0  0  0  0  0  0  0  0  0
   61.3640  177.5150    1.9670 C   0  0  0  0  0  0  0  0  0  0  0  0
   63.0630  177.9650    0.3390 C   0  0  0  0  0  0  0  0  0  0  0  0
   58.7540  184.3620    1.7220 C   0  0  0  0  0  0  0  0  0  0  0  0
   60.7300  182.4170    4.2340 C   0  0  0  0  0  0  0  0  0  0  0  0
   62.8080  183.5520    4.5010 C   0  0  0  0  0  0  0  0  0  0  0  0
   58.8760  183.4850    0.5920 C   0  0  0  0  0  0  0  0  0  0  0  0
   69.4250  174.3760    5.8630 C   0  0  0  0  0  0  0  0  0  0  0  0
   70.0530  176.0200    4.1900 C   0  0  0  0  0  0  0  0  0  0  0  0
   61.1060  184.4360    0.1100 C   0  0  0  0  0  0  0  0  0  0  0  0
   69.1580  173.8710    3.5470 C   0  0  0  0  0  0  0  0  0  0  0  0
   61.0670  179.2610    0.3750 C   0  0  0  0  0  0  0  0  0  0  0  0
   62.6180  177.2040    1.4000 C   0  0  0  0  0  0  0  0  0  0  0  0
   59.8320  185.2400    2.0870 C   0  0  0  0  0  0  0  0  0  0  0  0
   61.4790  183.4070    4.8530 C   0  0  0  0  0  0  0  0  0  0  0  0
   60.0470  183.5550   -0.1590 C   0  0  0  0  0  0  0  0  0  0  0  0
   60.9830  185.2100    1.2650 C   0  0  0  0  0  0  0  0  0  0  0  0
   69.9420  175.6010    5.5060 C   0  0  0  0  0  0  0  0  0  0  0  0
   68.5620  172.8330    2.6580 C   0  0  0  0  0  0  0  0  0  0  0  0
   67.2180  172.5080    2.3000 C   0  0  0  0  0  0  0  0  0  0  0  0
   60.3820  180.4230   -0.1990 C   0  0  0  0  0  0  0  0  0  0  0  0
   69.6790  172.4090    1.8290 C   0  0  0  0  0  0  0  0  0  0  0  0
   66.7810  171.4020    1.4400 C   0  0  0  0  0  0  0  0  0  0  0  0
   69.1630  171.5180    0.6690 C   0  0  0  0  0  0  0  0  0  0  0  0
   64.5900  175.7660    1.0460 C   0  0  0  0  0  0  0  0  0  0  0  0
   63.3820  175.6820    3.1940 C   0  0  0  0  0  0  0  0  0  0  0  0
   65.5930  174.7320    1.5370 C   0  0  0  0  0  0  0  0  0  0  0  0
   63.9250  174.3070    3.1910 C   0  0  0  0  0  0  0  0  0  0  0  0
   57.2750  188.7130    8.1080 C   0  0  0  0  0  0  0  0  0  0  0  0
   58.6070  189.8980    6.5080 C   0  0  0  0  0  0  0  0  0  0  0  0
   57.8660  189.5390    9.2390 C   0  0  0  0  0  0  0  0  0  0  0  0
   58.9800  190.8800    7.6120 C   0  0  0  0  0  0  0  0  0  0  0  0
   67.9860  170.5590    1.0230 C   0  0  0  0  0  0  0  0  0  0  0  0
   67.5060  169.7640   -0.1410 C   0  0  0  0  0  0  0  0  0  0  0  0
   68.4160  169.6460    2.1260 C   0  0  0  0  0  0  0  0  0  0  0  0
   66.2370  173.1620    3.2340 C   0  0  0  0  0  0  0  0  0  0  0  0
   58.8980  187.1820    5.1090 C   0  0  0  0  0  0  0  0  0  0  0  0
   57.8430  187.6090    6.0670 C   0  0  0  0  0  0  0  0  0  0  0  0
   59.0840  184.6710    5.2240 C   0  0  0  0  0  0  0  0  0  0  0  0
   58.8730  185.8970    4.3890 C   0  0  2  0  0  0  0  0  0  0  0  0
   61.8040  187.7800    0.6250 C   0  0  0  0  0  0  0  0  0  0  0  0
   63.4590  176.1290    1.8730 N   0  0  0  0  0  0  0  0  0  0  0  0
   65.3360  174.2690    2.8990 N   0  3  0  0  0  0  0  0  0  0  0  0
   58.2290  188.5770    7.0480 N   0  3  0  0  0  0  0  0  0  0  0  0
   59.6680  186.1150    3.2170 N   0  0  0  0  0  0  0  0  0  0  0  0
   61.0020  181.2170   -1.1820 N   0  0  0  0  0  0  0  0  0  0  0  0
   59.3510  180.8590    0.2110 O   0  0  0  0  0  0  0  0  0  0  0  0
   62.6500  186.7420    2.7970 O   0  0  0  0  0  0  0  0  0  0  0  0
   63.5200  185.7770    0.6590 O   0  0  0  0  0  0  0  0  0  0  0  0
   60.9460  183.2890   -2.5060 O   0  0  0  0  0  0  0  0  0  0  0  0
   58.7800  182.3150   -1.9490 O   0  0  0  0  0  0  0  0  0  0  0  0
   58.1820  190.8060    8.7650 O   0  0  0  0  0  0  0  0  0  0  0  0
   60.6890  184.4740    6.0200 S   0  0  0  0  0  0  0  0  0  0  0  0
   62.3370  186.2860    1.4280 S   0  0  0  0  0  0  0  0  0  0  0  0
   60.1920  182.5420   -1.5280 S   0  0  0  0  0  0  0  0  0  0  0  0
   62.7110  188.6830    0.8870 F   0  0  0  0  0  0  0  0  0  0  0  0
   61.7040  187.6580   -0.6900 F   0  0  0  0  0  0  0  0  0  0  0  0
   60.6610  188.2810    1.1170 F   0  0  0  0  0  0  0  0  0  0  0  0
   63.0722  181.0213    2.2435 H   0  0  0  0  0  0  0  0  0  0  0  0
   60.6853  180.7875    2.8524 H   0  0  0  0  0  0  0  0  0  0  0  0
   64.3847  182.8624    3.2375 H   0  0  0  0  0  0  0  0  0  0  0  0
   68.5532  172.5912    5.1381 H   0  0  0  0  0  0  0  0  0  0  0  0
   69.6553  175.4285    2.1464 H   0  0  0  0  0  0  0  0  0  0  0  0
   59.5999  178.7713    1.8798 H   0  0  0  0  0  0  0  0  0  0  0  0
   62.6852  179.6390   -0.9597 H   0  0  0  0  0  0  0  0  0  0  0  0
   61.0123  176.9467    2.8153 H   0  0  0  0  0  0  0  0  0  0  0  0
   64.0177  177.7384   -0.1122 H   0  0  0  0  0  0  0  0  0  0  0  0
   57.8438  184.3621    2.3033 H   0  0  0  0  0  0  0  0  0  0  0  0
   59.6847  182.3131    4.4848 H   0  0  0  0  0  0  0  0  0  0  0  0
   63.4148  184.3113    4.9718 H   0  0  0  0  0  0  0  0  0  0  0  0
   58.0869  182.7946    0.3331 H   0  0  0  0  0  0  0  0  0  0  0  0
   69.3518  174.0885    6.9015 H   0  0  0  0  0  0  0  0  0  0  0  0
   70.4545  176.9921    3.9445 H   0  0  0  0  0  0  0  0  0  0  0  0
   61.9660  184.5107   -0.5390 H   0  0  0  0  0  0  0  0  0  0  0  0
   70.1823  173.2944    1.4135 H   0  0  0  0  0  0  0  0  0  0  0  0
   70.3911  171.8359    2.4409 H   0  0  0  0  0  0  0  0  0  0  0  0
   66.0680  170.7713    1.9912 H   0  0  0  0  0  0  0  0  0  0  0  0
   66.2926  171.8091    0.5424 H   0  0  0  0  0  0  0  0  0  0  0  0
   68.8263  172.1808   -0.1418 H   0  0  0  0  0  0  0  0  0  0  0  0
   70.0042  170.9038    0.3151 H   0  0  0  0  0  0  0  0  0  0  0  0
   65.1547  176.6909    0.8571 H   0  0  0  0  0  0  0  0  0  0  0  0
   64.1810  175.3861    0.0982 H   0  0  0  0  0  0  0  0  0  0  0  0
   62.3366  175.6794    3.5363 H   0  0  0  0  0  0  0  0  0  0  0  0
   63.9816  176.3283    3.8518 H   0  0  0  0  0  0  0  0  0  0  0  0
   65.5567  173.8642    0.8620 H   0  0  0  0  0  0  0  0  0  0  0  0
   66.5974  175.1793    1.5054 H   0  0  0  0  0  0  0  0  0  0  0  0
   63.7582  173.8602    4.1822 H   0  0  0  0  0  0  0  0  0  0  0  0
   63.3916  173.7193    2.4294 H   0  0  0  0  0  0  0  0  0  0  0  0
   57.0075  187.7156    8.4871 H   0  0  0  0  0  0  0  0  0  0  0  0
   56.3736  189.2134    7.7244 H   0  0  0  0  0  0  0  0  0  0  0  0
   57.7573  190.3065    5.9414 H   0  0  0  0  0  0  0  0  0  0  0  0
   59.4695  189.7738    5.8367 H   0  0  0  0  0  0  0  0  0  0  0  0
   57.1324  189.6240   10.0543 H   0  0  0  0  0  0  0  0  0  0  0  0
   58.7766  189.0495    9.6147 H   0  0  0  0  0  0  0  0  0  0  0  0
   60.0222  190.6848    7.9049 H   0  0  0  0  0  0  0  0  0  0  0  0
   58.8982  191.8986    7.2049 H   0  0  0  0  0  0  0  0  0  0  0  0
   68.3203  169.1219   -0.5080 H   0  0  0  0  0  0  0  0  0  0  0  0
   66.6563  169.1376    0.1683 H   0  0  0  0  0  0  0  0  0  0  0  0
   67.1864  170.4452   -0.9434 H   0  0  0  0  0  0  0  0  0  0  0  0
   69.2827  169.0544    1.7961 H   0  0  0  0  0  0  0  0  0  0  0  0
   68.6934  170.2420    3.0080 H   0  0  0  0  0  0  0  0  0  0  0  0
   67.5882  168.9699    2.3859 H   0  0  0  0  0  0  0  0  0  0  0  0
   65.5802  172.3493    3.5778 H   0  0  0  0  0  0  0  0  0  0  0  0
   66.8412  173.5269    4.0777 H   0  0  0  0  0  0  0  0  0  0  0  0
   58.9314  187.9606    4.3326 H   0  0  0  0  0  0  0  0  0  0  0  0
   59.8401  187.1897    5.6768 H   0  0  0  0  0  0  0  0  0  0  0  0
   57.0139  188.0359    5.4836 H   0  0  0  0  0  0  0  0  0  0  0  0
   57.4927  186.7130    6.6005 H   0  0  0  0  0  0  0  0  0  0  0  0
   58.3213  184.6767    6.0167 H   0  0  0  0  0  0  0  0  0  0  0  0
   58.9296  183.7980    4.5728 H   0  0  0  0  0  0  0  0  0  0  0  0
   57.8405  185.8037    4.0214 H   0  0  0  0  0  0  0  0  0  0  0  0
   65.6965  175.0179    3.4550 H   0  0  0  0  0  0  0  0  0  0  0  0
   59.0596  188.2178    7.4735 H   0  0  0  0  0  0  0  0  0  0  0  0
   60.5951  186.2601    3.5625 H   0  0  0  0  0  0  0  0  0  0  0  0
   61.8670  180.9723   -1.6201 H   0  0  0  0  0  0  0  0  0  0  0  0
  1 25  1  0  0  0  0
  2  3  2  0  0  0  0
  2  4  1  0  0  0  0
  3 12  1  0  0  0  0
  4 13  2  0  0  0  0
  5 15  2  0  0  0  0
  5 18  1  0  0  0  0
  6 16  1  0  0  0  0
  6 18  2  0  0  0  0
  7  9  2  0  0  0  0
  7 19  1  0  0  0  0
  8 10  1  0  0  0  0
  8 19  2  0  0  0  0
  9 20  1  0  0  0  0
 10 20  2  0  0  0  0
 11 14  2  0  0  0  0
 11 21  1  0  0  0  0
 12 22  2  0  0  0  0
 13 22  1  0  0  0  0
 14 23  1  0  0  0  0
 15 25  1  0  0  0  0
 16 25  2  0  0  0  0
 17 24  1  0  0  0  0
 17 23  2  0  0  0  0
 18 26  1  0  0  0  0
 19 28  1  0  0  0  0
 20 49  1  0  0  0  0
 21 24  2  0  0  0  0
 21 52  1  0  0  0  0
 22 60  1  0  0  0  0
 23 62  1  0  0  0  0
 24 61  1  0  0  0  0
 26 27  2  0  0  0  0
 26 29  1  0  0  0  0
 27 30  1  0  0  0  0
 27 43  1  0  0  0  0
 28 53  1  0  0  0  0
 28 54  2  0  0  0  0
 29 31  1  0  0  0  0
 30 40  1  0  0  0  0
 31 40  1  0  0  0  0
 32 34  1  0  0  0  0
 32 49  1  0  0  0  0
 33 35  1  0  0  0  0
 33 49  1  0  0  0  0
 34 50  1  0  0  0  0
 35 50  1  0  0  0  0
 36 38  1  0  0  0  0
 36 51  1  0  0  0  0
 37 39  1  0  0  0  0
 37 51  1  0  0  0  0
 38 59  1  0  0  0  0
 39 59  1  0  0  0  0
 40 41  1  0  0  0  0
 40 42  1  0  0  0  0
 43 50  1  0  0  0  0
 44 45  1  0  0  0  0
 44 47  1  0  0  0  0
 45 51  1  0  0  0  0
 46 47  1  0  0  0  0
 46 60  1  0  0  0  0
 47 52  1  0  0  0  0
 48 61  1  0  0  0  0
 48 63  1  0  0  0  0
 48 64  1  0  0  0  0
 48 65  1  0  0  0  0
 53 62  1  0  0  0  0
 55 61  2  0  0  0  0
 56 61  2  0  0  0  0
 57 62  2  0  0  0  0
 58 62  2  0  0  0  0
  2 66  1  0  0  0  0
  3 67  1  0  0  0  0
  4 68  1  0  0  0  0
  5 69  1  0  0  0  0
  6 70  1  0  0  0  0
  7 71  1  0  0  0  0
  8 72  1  0  0  0  0
  9 73  1  0  0  0  0
 10 74  1  0  0  0  0
 11 75  1  0  0  0  0
 12 76  1  0  0  0  0
 13 77  1  0  0  0  0
 14 78  1  0  0  0  0
 15 79  1  0  0  0  0
 16 80  1  0  0  0  0
 17 81  1  0  0  0  0
 29 82  1  0  0  0  0
 29 83  1  0  0  0  0
 30 84  1  0  0  0  0
 30 85  1  0  0  0  0
 31 86  1  0  0  0  0
 31 87  1  0  0  0  0
 32 88  1  0  0  0  0
 32 89  1  0  0  0  0
 33 90  1  0  0  0  0
 33 91  1  0  0  0  0
 34 92  1  0  0  0  0
 34 93  1  0  0  0  0
 35 94  1  0  0  0  0
 35 95  1  0  0  0  0
 36 96  1  0  0  0  0
 36 97  1  0  0  0  0
 37 98  1  0  0  0  0
 37 99  1  0  0  0  0
 38100  1  0  0  0  0
 38101  1  0  0  0  0
 39102  1  0  0  0  0
 39103  1  0  0  0  0
 41104  1  0  0  0  0
 41105  1  0  0  0  0
 41106  1  0  0  0  0
 42107  1  0  0  0  0
 42108  1  0  0  0  0
 42109  1  0  0  0  0
 43110  1  0  0  0  0
 43111  1  0  0  0  0
 44112  1  0  0  0  0
 44113  1  0  0  0  0
 45114  1  0  0  0  0
 45115  1  0  0  0  0
 46116  1  0  0  0  0
 46117  1  0  0  0  0
 47118  1  0  0  0  0
 50119  1  0  0  0  0
 51120  1  0  0  0  0
 52121  1  0  0  0  0
 53122  1  0  0  0  0
M  CHG  2  50   1  51   1
M  END
$$$$
