vhl_ligand.pdb
 OpenBabel03162104023D

 29 31  0  0  1  0  0  0  0  0999 V2000
   58.9040   41.8200   40.8340 C   0  0  2  0  0  0  0  0  0  0  0  0
   58.1010   41.5540   39.6180 N   0  0  0  0  0  0  0  0  0  0  0  0
   59.0160   39.4410   41.4300 O   0  0  0  0  0  0  0  0  0  0  0  0
   58.8230   40.8660   49.6950 S   0  0  0  0  0  0  0  0  0  0  0  0
   62.7020   39.6930   49.5000 C   0  0  0  0  0  0  0  0  0  0  0  0
   60.9500   40.3600   51.1540 N   0  0  0  0  0  0  0  0  0  0  0  0
   59.7510   40.4210   38.5400 O   0  0  0  0  0  0  0  0  0  0  0  0
   56.2120   39.2020   35.8560 C   0  0  0  0  0  0  0  0  0  0  0  0
   60.5550   40.8420   42.3590 N   0  0  0  0  0  0  0  0  0  0  0  0
   57.2220   44.4830   40.5330 O   0  0  0  0  0  0  0  0  0  0  0  0
   58.3070   38.1910   36.8100 C   0  0  0  0  0  0  0  0  0  0  0  0
   56.3670   38.7420   38.3340 C   0  0  0  0  0  0  0  0  0  0  0  0
   60.1930   41.0280   45.2520 C   0  0  0  0  0  0  0  0  0  0  0  0
   61.3120   38.8990   45.5460 C   0  0  0  0  0  0  0  0  0  0  0  0
   59.9620   41.0910   46.6360 C   0  0  0  0  0  0  0  0  0  0  0  0
   61.0840   38.9670   46.9310 C   0  0  0  0  0  0  0  0  0  0  0  0
   59.6860   40.7590   51.2150 C   0  0  0  0  0  0  0  0  0  0  0  0
   61.2240   39.8460   43.2070 C   0  0  0  0  0  0  0  0  0  0  0  0
   57.7080   40.6400   37.2850 C   0  0  0  0  0  0  0  0  0  0  0  0
   58.5990   40.8390   38.5280 C   0  0  0  0  0  0  0  0  0  0  0  0
   60.8910   39.9370   44.6950 C   0  0  0  0  0  0  0  0  0  0  0  0
   61.2910   40.0790   49.8480 C   0  0  0  0  0  0  0  0  0  0  0  0
   60.4460   40.0880   47.4950 C   0  0  0  0  0  0  0  0  0  0  0  0
   60.2580   40.2290   48.9430 C   0  0  0  0  0  0  0  0  0  0  0  0
   59.4910   40.5680   41.5260 C   0  0  0  0  0  0  0  0  0  0  0  0
   57.9840   42.5870   41.7970 C   0  0  0  0  0  0  0  0  0  0  0  0
   57.1590   39.1970   37.0840 C   0  0  0  0  0  0  0  0  0  0  0  0
   56.8570   43.1610   40.9360 C   0  0  2  0  0  0  0  0  0  0  0  0
   56.7840   42.2100   39.7250 C   0  0  0  0  0  0  0  0  0  0  0  0
  1 25  1  1  0  0  0
  1 26  1  0  0  0  0
  2 29  1  0  0  0  0
  2  1  1  0  0  0  0
  3 25  2  0  0  0  0
  4 17  1  0  0  0  0
  5 22  1  0  0  0  0
  6 17  2  0  0  0  0
  8 27  1  0  0  0  0
  9 18  1  0  0  0  0
 11 27  1  0  0  0  0
 13 15  1  0  0  0  0
 14 16  2  0  0  0  0
 15 23  2  0  0  0  0
 16 23  1  0  0  0  0
 18 21  1  0  0  0  0
 19 20  1  0  0  0  0
 20  7  2  0  0  0  0
 20  2  1  0  0  0  0
 21 13  2  0  0  0  0
 21 14  1  0  0  0  0
 22  6  1  0  0  0  0
 23 24  1  0  0  0  0
 24  4  1  0  0  0  0
 24 22  2  0  0  0  0
 25  9  1  0  0  0  0
 27 19  1  0  0  0  0
 27 12  1  0  0  0  0
 28 10  1  6  0  0  0
 28 26  1  0  0  0  0
 29 28  1  0  0  0  0
M  END
$$$$
