
  -OEChem-03252118503D

122128  0     1  0  0  0  0  0999 V2000
    7.7820  -30.1250  -14.2290 Cl  0  0  0  0  0  0  0  0  0  0  0  0
   16.3230  -25.5660  -17.8030 C   0  0  0  0  0  0  0  0  0  0  0  0
   16.4580  -24.1990  -17.7190 C   0  0  0  0  0  0  0  0  0  0  0  0
   17.1260  -26.3740  -17.0320 C   0  0  0  0  0  0  0  0  0  0  0  0
    5.7230  -28.4900  -17.2030 C   0  0  0  0  0  0  0  0  0  0  0  0
    7.4880  -29.7910  -18.1610 C   0  0  0  0  0  0  0  0  0  0  0  0
   13.7230  -23.2840  -20.3680 C   0  0  0  0  0  0  0  0  0  0  0  0
   13.8970  -25.1320  -21.9080 C   0  0  0  0  0  0  0  0  0  0  0  0
   12.4590  -23.7070  -20.0310 C   0  0  0  0  0  0  0  0  0  0  0  0
   12.6240  -25.5400  -21.5540 C   0  0  0  0  0  0  0  0  0  0  0  0
   19.9150  -23.0030  -19.3830 C   0  0  0  0  0  0  0  0  0  0  0  0
   17.3790  -23.6330  -16.8610 C   0  0  0  0  0  0  0  0  0  0  0  0
   18.0510  -25.7970  -16.1800 C   0  0  0  0  0  0  0  0  0  0  0  0
   19.2470  -22.9920  -20.5990 C   0  0  0  0  0  0  0  0  0  0  0  0
    6.1480  -28.8350  -15.9330 C   0  0  0  0  0  0  0  0  0  0  0  0
    7.9120  -30.1550  -16.9010 C   0  0  0  0  0  0  0  0  0  0  0  0
   19.2930  -25.3980  -20.7050 C   0  0  0  0  0  0  0  0  0  0  0  0
    6.4010  -28.9520  -18.3130 C   0  0  0  0  0  0  0  0  0  0  0  0
   14.4240  -24.0010  -21.3120 C   0  0  0  0  0  0  0  0  0  0  0  0
   11.8960  -24.8240  -20.6120 C   0  0  0  0  0  0  0  0  0  0  0  0
   20.2770  -24.2120  -18.8290 C   0  0  0  0  0  0  0  0  0  0  0  0
   18.1870  -24.4250  -16.0840 C   0  0  0  0  0  0  0  0  0  0  0  0
   18.9500  -24.1810  -21.2420 C   0  0  0  0  0  0  0  0  0  0  0  0
   19.9300  -25.3670  -19.4960 C   0  0  0  0  0  0  0  0  0  0  0  0
    7.2360  -29.6730  -15.7990 C   0  0  0  0  0  0  0  0  0  0  0  0
    5.9290  -28.6000  -19.6530 C   0  0  0  0  0  0  0  0  0  0  0  0
    5.9880  -27.3490  -20.1430 C   0  0  0  0  0  0  0  0  0  0  0  0
   15.7900  -23.5720  -21.6200 C   0  0  0  0  0  0  0  0  0  0  0  0
    5.3670  -29.7480  -20.4120 C   0  0  0  0  0  0  0  0  0  0  0  0
    5.4630  -27.0210  -21.4970 C   0  0  0  0  0  0  0  0  0  0  0  0
    5.1790  -29.3930  -21.8740 C   0  0  0  0  0  0  0  0  0  0  0  0
   10.0070  -26.1850  -21.1080 C   0  0  0  0  0  0  0  0  0  0  0  0
    9.7460  -24.0780  -19.9440 C   0  0  0  0  0  0  0  0  0  0  0  0
    8.7600  -26.7410  -20.4520 C   0  0  0  0  0  0  0  0  0  0  0  0
    8.4390  -24.5490  -19.3230 C   0  0  0  0  0  0  0  0  0  0  0  0
   23.8250  -23.2780  -13.6870 C   0  0  0  0  0  0  0  0  0  0  0  0
   25.4520  -21.7220  -14.6310 C   0  0  0  0  0  0  0  0  0  0  0  0
   24.9390  -23.7660  -12.7930 C   0  0  0  0  0  0  0  0  0  0  0  0
   26.4360  -22.2500  -13.6180 C   0  0  0  0  0  0  0  0  0  0  0  0
    4.4890  -28.0630  -21.9970 C   0  0  0  0  0  0  0  0  0  0  0  0
    4.1330  -27.7830  -23.4400 C   0  0  0  0  0  0  0  0  0  0  0  0
    3.2150  -28.0820  -21.1910 C   0  0  0  0  0  0  0  0  0  0  0  0
    6.6040  -26.1880  -19.4270 C   0  0  0  0  0  0  0  0  0  0  0  0
   22.4620  -23.4870  -16.0440 C   0  0  0  0  0  0  0  0  0  0  0  0
   23.5210  -22.4230  -15.9840 C   0  0  0  0  0  0  0  0  0  0  0  0
   20.1780  -22.5020  -16.1690 C   0  0  0  0  0  0  0  0  0  0  0  0
   21.3300  -23.0960  -16.9690 C   0  0  2  0  0  0  0  0  0  0  0  0
   22.0770  -27.0060  -19.4880 C   0  0  0  0  0  0  0  0  0  0  0  0
   10.5980  -25.2150  -20.2040 N   0  0  0  0  0  0  0  0  0  0  0  0
    7.8090  -25.6340  -20.1330 N   0  3  0  0  0  0  0  0  0  0  0  0
   24.4810  -22.8030  -14.9170 N   0  3  0  0  0  0  0  0  0  0  0  0
   20.9380  -24.3460  -17.6010 N   0  0  0  0  0  0  0  0  0  0  0  0
   16.4810  -24.5140  -22.3930 N   0  0  0  0  0  0  0  0  0  0  0  0
   16.3210  -22.5730  -21.1630 O   0  0  0  0  0  0  0  0  0  0  0  0
   20.5780  -26.8710  -17.3820 O   0  0  0  0  0  0  0  0  0  0  0  0
   19.6500  -27.9600  -19.4590 O   0  0  0  0  0  0  0  0  0  0  0  0
   18.5810  -25.4370  -23.4670 O   0  0  0  0  0  0  0  0  0  0  0  0
   18.1660  -22.9840  -23.4950 O   0  0  0  0  0  0  0  0  0  0  0  0
   25.7290  -22.6390  -12.4520 O   0  0  0  0  0  0  0  0  0  0  0  0
   19.4120  -23.6970  -15.0170 S   0  0  0  0  0  0  0  0  0  0  0  0
   20.4230  -26.9030  -18.8240 S   0  0  0  0  0  0  0  0  0  0  0  0
   18.0920  -24.2510  -22.7980 S   0  0  0  0  0  0  0  0  0  0  0  0
   22.6520  -28.1740  -19.1740 F   0  0  0  0  0  0  0  0  0  0  0  0
   22.1130  -26.9530  -20.8480 F   0  0  0  0  0  0  0  0  0  0  0  0
   22.8890  -26.0190  -19.0200 F   0  0  0  0  0  0  0  0  0  0  0  0
   15.5924  -26.0009  -18.4690 H   0  0  0  0  0  0  0  0  0  0  0  0
   15.8365  -23.5623  -18.3311 H   0  0  0  0  0  0  0  0  0  0  0  0
   17.0353  -27.4486  -17.0911 H   0  0  0  0  0  0  0  0  0  0  0  0
    4.8571  -27.8565  -17.3268 H   0  0  0  0  0  0  0  0  0  0  0  0
    8.0071  -30.1628  -19.0320 H   0  0  0  0  0  0  0  0  0  0  0  0
   14.1558  -22.4103  -19.9035 H   0  0  0  0  0  0  0  0  0  0  0  0
   14.4693  -25.6867  -22.6368 H   0  0  0  0  0  0  0  0  0  0  0  0
   11.8948  -23.1527  -19.2955 H   0  0  0  0  0  0  0  0  0  0  0  0
   12.1941  -26.4187  -22.0116 H   0  0  0  0  0  0  0  0  0  0  0  0
   20.1480  -22.0774  -18.8777 H   0  0  0  0  0  0  0  0  0  0  0  0
   17.4646  -22.5581  -16.8005 H   0  0  0  0  0  0  0  0  0  0  0  0
   18.6811  -26.4333  -15.5762 H   0  0  0  0  0  0  0  0  0  0  0  0
   18.9577  -22.0521  -21.0454 H   0  0  0  0  0  0  0  0  0  0  0  0
    5.6369  -28.4549  -15.0608 H   0  0  0  0  0  0  0  0  0  0  0  0
    8.7625  -30.8091  -16.7779 H   0  0  0  0  0  0  0  0  0  0  0  0
   19.0718  -26.3269  -21.2096 H   0  0  0  0  0  0  0  0  0  0  0  0
    6.0560  -30.6020  -20.3349 H   0  0  0  0  0  0  0  0  0  0  0  0
    4.3931  -30.0224  -19.9804 H   0  0  0  0  0  0  0  0  0  0  0  0
    4.9505  -26.0487  -21.4527 H   0  0  0  0  0  0  0  0  0  0  0  0
    6.3073  -26.9588  -22.1993 H   0  0  0  0  0  0  0  0  0  0  0  0
    6.1619  -29.3400  -22.3650 H   0  0  0  0  0  0  0  0  0  0  0  0
    4.5673  -30.1669  -22.3607 H   0  0  0  0  0  0  0  0  0  0  0  0
   10.7215  -26.9989  -21.3005 H   0  0  0  0  0  0  0  0  0  0  0  0
    9.7427  -25.6969  -22.0577 H   0  0  0  0  0  0  0  0  0  0  0  0
    9.5348  -23.5555  -20.8887 H   0  0  0  0  0  0  0  0  0  0  0  0
   10.2538  -23.3913  -19.2508 H   0  0  0  0  0  0  0  0  0  0  0  0
    8.2745  -27.4512  -21.1374 H   0  0  0  0  0  0  0  0  0  0  0  0
    9.0385  -27.2601  -19.5230 H   0  0  0  0  0  0  0  0  0  0  0  0
    8.6407  -24.9295  -18.3108 H   0  0  0  0  0  0  0  0  0  0  0  0
    7.7444  -23.6981  -19.2632 H   0  0  0  0  0  0  0  0  0  0  0  0
   23.1292  -24.0987  -13.9157 H   0  0  0  0  0  0  0  0  0  0  0  0
   23.2766  -22.4565  -13.2029 H   0  0  0  0  0  0  0  0  0  0  0  0
   24.9278  -20.8451  -14.2232 H   0  0  0  0  0  0  0  0  0  0  0  0
   25.9794  -21.4377  -15.5535 H   0  0  0  0  0  0  0  0  0  0  0  0
   24.5200  -24.2213  -11.8835 H   0  0  0  0  0  0  0  0  0  0  0  0
   25.5517  -24.5081  -13.3257 H   0  0  0  0  0  0  0  0  0  0  0  0
   26.9660  -23.1187  -14.0357 H   0  0  0  0  0  0  0  0  0  0  0  0
   27.1628  -21.4642  -13.3645 H   0  0  0  0  0  0  0  0  0  0  0  0
    3.4243  -28.5444  -23.7977 H   0  0  0  0  0  0  0  0  0  0  0  0
    3.6714  -26.7875  -23.5171 H   0  0  0  0  0  0  0  0  0  0  0  0
    5.0446  -27.8131  -24.0549 H   0  0  0  0  0  0  0  0  0  0  0  0
    2.5394  -28.8529  -21.5901 H   0  0  0  0  0  0  0  0  0  0  0  0
    3.4493  -28.3083  -20.1403 H   0  0  0  0  0  0  0  0  0  0  0  0
    2.7266  -27.0984  -21.2541 H   0  0  0  0  0  0  0  0  0  0  0  0
    5.8513  -25.3905  -19.3402 H   0  0  0  0  0  0  0  0  0  0  0  0
    6.9072  -26.5170  -18.4221 H   0  0  0  0  0  0  0  0  0  0  0  0
   22.9147  -24.4208  -16.4089 H   0  0  0  0  0  0  0  0  0  0  0  0
   22.0582  -23.6459  -15.0332 H   0  0  0  0  0  0  0  0  0  0  0  0
   24.0417  -22.3574  -16.9507 H   0  0  0  0  0  0  0  0  0  0  0  0
   23.0630  -21.4512  -15.7475 H   0  0  0  0  0  0  0  0  0  0  0  0
   20.5590  -21.6499  -15.5870 H   0  0  0  0  0  0  0  0  0  0  0  0
   19.4082  -22.1510  -16.8720 H   0  0  0  0  0  0  0  0  0  0  0  0
   21.6839  -22.3701  -17.7159 H   0  0  0  0  0  0  0  0  0  0  0  0
    7.5010  -25.2344  -20.9964 H   0  0  0  0  0  0  0  0  0  0  0  0
   25.0103  -23.5728  -15.2736 H   0  0  0  0  0  0  0  0  0  0  0  0
   20.3297  -24.8324  -16.9737 H   0  0  0  0  0  0  0  0  0  0  0  0
   16.0163  -25.3430  -22.7041 H   0  0  0  0  0  0  0  0  0  0  0  0
  1 25  1  0  0  0  0
  2  3  2  0  0  0  0
  2  4  1  0  0  0  0
  3 12  1  0  0  0  0
  4 13  2  0  0  0  0
  5 15  2  0  0  0  0
  5 18  1  0  0  0  0
  6 16  1  0  0  0  0
  6 18  2  0  0  0  0
  7  9  2  0  0  0  0
  7 19  1  0  0  0  0
  8 10  1  0  0  0  0
  8 19  2  0  0  0  0
  9 20  1  0  0  0  0
 10 20  2  0  0  0  0
 11 14  2  0  0  0  0
 11 21  1  0  0  0  0
 12 22  2  0  0  0  0
 13 22  1  0  0  0  0
 14 23  1  0  0  0  0
 15 25  1  0  0  0  0
 16 25  2  0  0  0  0
 17 24  1  0  0  0  0
 17 23  2  0  0  0  0
 18 26  1  0  0  0  0
 19 28  1  0  0  0  0
 20 49  1  0  0  0  0
 21 24  2  0  0  0  0
 21 52  1  0  0  0  0
 22 60  1  0  0  0  0
 23 62  1  0  0  0  0
 24 61  1  0  0  0  0
 26 27  2  0  0  0  0
 26 29  1  0  0  0  0
 27 30  1  0  0  0  0
 27 43  1  0  0  0  0
 28 53  1  0  0  0  0
 28 54  2  0  0  0  0
 29 31  1  0  0  0  0
 30 40  1  0  0  0  0
 31 40  1  0  0  0  0
 32 34  1  0  0  0  0
 32 49  1  0  0  0  0
 33 35  1  0  0  0  0
 33 49  1  0  0  0  0
 34 50  1  0  0  0  0
 35 50  1  0  0  0  0
 36 38  1  0  0  0  0
 36 51  1  0  0  0  0
 37 39  1  0  0  0  0
 37 51  1  0  0  0  0
 38 59  1  0  0  0  0
 39 59  1  0  0  0  0
 40 41  1  0  0  0  0
 40 42  1  0  0  0  0
 43 50  1  0  0  0  0
 44 45  1  0  0  0  0
 44 47  1  0  0  0  0
 45 51  1  0  0  0  0
 46 47  1  0  0  0  0
 46 60  1  0  0  0  0
 47 52  1  0  0  0  0
 48 61  1  0  0  0  0
 48 63  1  0  0  0  0
 48 64  1  0  0  0  0
 48 65  1  0  0  0  0
 53 62  1  0  0  0  0
 55 61  2  0  0  0  0
 56 61  2  0  0  0  0
 57 62  2  0  0  0  0
 58 62  2  0  0  0  0
  2 66  1  0  0  0  0
  3 67  1  0  0  0  0
  4 68  1  0  0  0  0
  5 69  1  0  0  0  0
  6 70  1  0  0  0  0
  7 71  1  0  0  0  0
  8 72  1  0  0  0  0
  9 73  1  0  0  0  0
 10 74  1  0  0  0  0
 11 75  1  0  0  0  0
 12 76  1  0  0  0  0
 13 77  1  0  0  0  0
 14 78  1  0  0  0  0
 15 79  1  0  0  0  0
 16 80  1  0  0  0  0
 17 81  1  0  0  0  0
 29 82  1  0  0  0  0
 29 83  1  0  0  0  0
 30 84  1  0  0  0  0
 30 85  1  0  0  0  0
 31 86  1  0  0  0  0
 31 87  1  0  0  0  0
 32 88  1  0  0  0  0
 32 89  1  0  0  0  0
 33 90  1  0  0  0  0
 33 91  1  0  0  0  0
 34 92  1  0  0  0  0
 34 93  1  0  0  0  0
 35 94  1  0  0  0  0
 35 95  1  0  0  0  0
 36 96  1  0  0  0  0
 36 97  1  0  0  0  0
 37 98  1  0  0  0  0
 37 99  1  0  0  0  0
 38100  1  0  0  0  0
 38101  1  0  0  0  0
 39102  1  0  0  0  0
 39103  1  0  0  0  0
 41104  1  0  0  0  0
 41105  1  0  0  0  0
 41106  1  0  0  0  0
 42107  1  0  0  0  0
 42108  1  0  0  0  0
 42109  1  0  0  0  0
 43110  1  0  0  0  0
 43111  1  0  0  0  0
 44112  1  0  0  0  0
 44113  1  0  0  0  0
 45114  1  0  0  0  0
 45115  1  0  0  0  0
 46116  1  0  0  0  0
 46117  1  0  0  0  0
 47118  1  0  0  0  0
 50119  1  0  0  0  0
 51120  1  0  0  0  0
 52121  1  0  0  0  0
 53122  1  0  0  0  0
M  CHG  2  50   1  51   1
M  END
$$$$
