4qnq_ligand_part.pdb
  -OEChem-03172100583D

 59 64  0  0  1  0  0  0  0  0999 V2000
   70.7470  176.8190    6.7720 Cl  0  0  0  0  0  0  0  0  0  0  0  0
   62.9730  181.7520    3.0890 C   0  0  0  0  0  0  0  0  0  0  0  0
   61.7160  181.3680    3.4970 C   0  0  0  0  0  0  0  0  0  0  0  0
   63.5330  182.9240    3.6000 C   0  0  0  0  0  0  0  0  0  0  0  0
   69.5020  173.3480    5.3560 C   0  0  0  0  0  0  0  0  0  0  0  0
   69.6960  174.8640    3.5020 C   0  0  0  0  0  0  0  0  0  0  0  0
   60.8220  178.2250    1.9300 C   0  0  0  0  0  0  0  0  0  0  0  0
   62.4260  178.6720    0.1270 C   0  0  0  0  0  0  0  0  0  0  0  0
   61.7300  177.2510    2.3470 C   0  0  0  0  0  0  0  0  0  0  0  0
   63.3090  177.6930    0.5930 C   0  0  0  0  0  0  0  0  0  0  0  0
   58.7970  184.1170    1.9920 C   0  0  0  0  0  0  0  0  0  0  0  0
   60.9830  182.1460    4.3820 C   0  0  0  0  0  0  0  0  0  0  0  0
   62.8120  183.7140    4.4900 C   0  0  0  0  0  0  0  0  0  0  0  0
   58.8600  183.1860    0.9500 C   0  0  0  0  0  0  0  0  0  0  0  0
   69.9320  174.3110    6.2450 C   0  0  0  0  0  0  0  0  0  0  0  0
   70.1150  175.8410    4.3730 C   0  0  0  0  0  0  0  0  0  0  0  0
   61.0070  184.1350    0.2060 C   0  0  0  0  0  0  0  0  0  0  0  0
   69.4510  173.6100    4.0000 C   0  0  0  0  0  0  0  0  0  0  0  0
   61.1830  178.8910    0.7860 C   0  0  0  0  0  0  0  0  0  0  0  0
   62.9620  176.9560    1.7390 C   0  0  0  0  0  0  0  0  0  0  0  0
   59.8500  185.0320    2.1450 C   0  0  0  0  0  0  0  0  0  0  0  0
   61.5500  183.3060    4.8990 C   0  0  0  0  0  0  0  0  0  0  0  0
   59.9700  183.2250    0.0900 C   0  0  0  0  0  0  0  0  0  0  0  0
   60.9150  185.0170    1.2560 C   0  0  0  0  0  0  0  0  0  0  0  0
   70.2260  175.5530    5.7150 C   0  0  0  0  0  0  0  0  0  0  0  0
   68.9090  172.5440    3.1490 C   0  0  0  0  0  0  0  0  0  0  0  0
   67.5940  172.2190    2.7120 C   0  0  0  0  0  0  0  0  0  0  0  0
   60.3070  179.9650    0.2810 C   0  0  0  0  0  0  0  0  0  0  0  0
   70.0720  172.1450    2.3620 C   0  0  0  0  0  0  0  0  0  0  0  0
   67.3670  170.8590    2.1740 C   0  0  0  0  0  0  0  0  0  0  0  0
   69.8050  170.7580    1.7260 C   0  0  0  0  0  0  0  0  0  0  0  0
   64.9280  175.5180    1.5430 C   0  0  0  0  0  0  0  0  0  0  0  0
   63.2120  174.8430    3.0770 C   0  0  0  0  0  0  0  0  0  0  0  0
   65.9670  174.7420    2.3230 C   0  0  0  0  0  0  0  0  0  0  0  0
   64.2660  174.2350    3.9420 C   0  0  0  0  0  0  0  0  0  0  0  0
   68.3960  170.6120    1.0680 C   0  0  0  0  0  0  0  0  0  0  0  0
   68.2500  171.6380   -0.0070 C   0  0  0  0  0  0  0  0  0  0  0  0
   68.1370  169.2770    0.4540 C   0  0  0  0  0  0  0  0  0  0  0  0
   66.5710  172.8830    3.6360 C   0  0  0  0  0  0  0  0  0  0  0  0
   59.1930  187.2360    5.0760 C   0  0  0  0  0  0  0  0  0  0  0  0
   58.1430  187.5780    6.0520 C   0  0  0  0  0  0  0  0  0  0  0  0
   59.0950  184.7150    5.2980 C   0  0  0  0  0  0  0  0  0  0  0  0
   59.0660  185.9290    4.4000 C   0  0  2  0  0  0  0  0  0  0  0  0
   61.7660  187.6510    0.5450 C   0  0  0  0  0  0  0  0  0  0  0  0
   63.7890  175.8970    2.3160 N   0  0  0  0  0  0  0  0  0  0  0  0
   65.4200  173.7100    3.2130 N   0  0  0  0  0  0  0  0  0  0  0  0
   59.8060  185.9790    3.1680 N   0  0  0  0  0  0  0  0  0  0  0  0
   60.8840  180.8540   -0.6540 N   0  0  0  0  0  0  0  0  0  0  0  0
   59.1910  180.1480    0.6600 O   0  0  0  0  0  0  0  0  0  0  0  0
   62.6420  186.5860    2.6650 O   0  0  0  0  0  0  0  0  0  0  0  0
   63.4110  185.6500    0.6590 O   0  0  0  0  0  0  0  0  0  0  0  0
   60.8730  182.8720   -2.1620 O   0  0  0  0  0  0  0  0  0  0  0  0
   58.7330  181.8870   -1.6760 O   0  0  0  0  0  0  0  0  0  0  0  0
   60.6540  184.2620    6.0640 S   0  0  0  0  0  0  0  0  0  0  0  0
   62.2570  186.1650    1.3520 S   0  0  0  0  0  0  0  0  0  0  0  0
   60.1000  182.0910   -1.2360 S   0  0  0  0  0  0  0  0  0  0  0  0
   62.6950  188.5780    0.7370 F   0  0  0  0  0  0  0  0  0  0  0  0
   61.6360  187.5100   -0.7530 F   0  0  0  0  0  0  0  0  0  0  0  0
   60.5950  187.9830    1.0640 F   0  0  0  0  0  0  0  0  0  0  0  0
  1 25  1  0  0  0  0
  2  3  2  0  0  0  0
  2  4  1  0  0  0  0
  3 12  1  0  0  0  0
  4 13  2  0  0  0  0
  5 15  2  0  0  0  0
  5 18  1  0  0  0  0
  6 16  1  0  0  0  0
  6 18  2  0  0  0  0
  7  9  2  0  0  0  0
  7 19  1  0  0  0  0
  8 10  1  0  0  0  0
  8 19  2  0  0  0  0
  9 20  1  0  0  0  0
 10 20  2  0  0  0  0
 11 14  2  0  0  0  0
 11 21  1  0  0  0  0
 12 22  2  0  0  0  0
 13 22  1  0  0  0  0
 14 23  1  0  0  0  0
 15 25  1  0  0  0  0
 16 25  2  0  0  0  0
 17 23  2  0  0  0  0
 17 24  1  0  0  0  0
 19 28  1  0  0  0  0
 20 45  1  0  0  0  0
 21 24  2  0  0  0  0
 21 47  1  0  0  0  0
 22 54  1  0  0  0  0
 23 56  1  0  0  0  0
 24 55  1  0  0  0  0
 26 18  1  0  0  0  0
 26 27  2  0  0  0  0
 26 29  1  0  0  0  0
 27 30  1  0  0  0  0
 27 39  1  0  0  0  0
 28 48  1  0  0  0  0
 28 49  2  0  0  0  0
 29 31  1  0  0  0  0
 30 36  1  0  0  0  0
 31 36  1  0  0  0  0
 32 34  1  0  0  0  0
 32 45  1  0  0  0  0
 33 35  1  0  0  0  0
 33 45  1  0  0  0  0
 34 46  1  0  0  0  0
 35 46  1  0  0  0  0
 36 37  1  0  0  0  0
 36 38  1  0  0  0  0
 39 46  1  0  0  0  0
 40 41  1  0  0  0  0
 42 43  1  0  0  0  0
 42 54  1  0  0  0  0
 43 40  1  1  0  0  0
 43 47  1  0  0  0  0
 44 55  1  0  0  0  0
 44 57  1  0  0  0  0
 44 58  1  0  0  0  0
 44 59  1  0  0  0  0
 48 56  1  0  0  0  0
 50 55  2  0  0  0  0
 51 55  2  0  0  0  0
 52 56  2  0  0  0  0
 53 56  2  0  0  0  0
M  END
$$$$
